1

F          1.09647        1.77280       19.19798
8

C         -1.90346        3.98420       16.25766
C         -0.56341        4.15475       16.91641
H          0.16975        4.44791       16.16645
H         -0.24778        3.20143       17.33769
C         -0.60059        5.20361       18.01971
H         -0.91913        6.15755       17.60206
H          0.39296        5.31004       18.45268
H         -1.30218        4.89273       18.79240
