1

H          6.04594       11.49904        3.48555
63

Fe         1.80188        3.48710        5.78523
N          2.80972        2.95738        7.50717
C          2.48252        1.93266        8.37058
C          3.57422        1.70109        9.29435
C          4.54249        2.60789        9.00538
C          5.83906        2.83227        9.71787
C          5.74615        3.98452       10.72011
H          4.92856        3.79607       11.41434
H          6.68119        4.06064       11.27312
H          5.56326        4.91626       10.18688
H          6.12266        1.92145       10.24313
H          6.61670        3.05308        8.98817
C          1.27814        1.25226        8.37350
H          1.15465        0.47138        9.12243
C          0.20881        1.47154        7.51029
C          4.06309        3.37752        7.88688
C          4.77028        4.41006        7.27837
H          5.77142        4.60770        7.65862
C          4.33029        5.21045        6.23797
C          5.07449        6.30921        5.66684
C          6.46034        6.75694        6.08920
C          6.42220        7.61300        7.33212
H          6.06106        7.01872        8.17016
H          5.75355        8.45734        7.17111
H          7.08012        5.88110        6.27545
H          6.91728        7.32326        5.27900
C          4.26525        6.86857        4.72302
C          3.03900        6.09965        4.70277
C          1.95706        6.34689        3.87402
C          0.77444        5.64882        3.83644
C         -0.34843        5.94758        2.95804
C         -0.38785        7.11020        1.98306
C         -0.60449        8.45184        2.67745
H          0.24034        8.66448        3.33087
H         -1.51827        8.41103        3.26843
H         -0.69163        9.23810        1.92904
H          0.55046        7.14381        1.43137
H         -1.19137        6.94647        1.26650
H          2.05372        7.18108        3.18069
C          4.53131        8.05915        3.83352
C          3.82071        9.29905        4.29560
H          4.20954        9.59972        5.26737
H          2.75383        9.09674        4.37782
H          3.98438       10.10035        3.57654
H          5.60301        8.25085        3.80846
H          4.21123        7.82377        2.81959
N          0.20938        2.38550        6.47494
N          3.08781        5.09026        5.64367
N          0.47579        4.54100        4.62312
C         -0.79632        4.13480        4.25257
S          2.84827        2.09320        4.19512
C          1.50021        1.27609        3.37709
C          1.01417        0.04816        3.84462
N          1.63065       -0.49315        4.99290
H          2.33387        0.11863        5.39469
C         -0.00155       -0.62260        3.16231
C          0.96641        1.79532        2.19083
N          1.54148        2.99255        1.70870
H          2.23312        3.39318        2.33428
C          1.43740        3.52727        0.47805
C          2.37842        4.70359        0.22646
F          3.02728        5.11004        1.29861
C         -0.04532        1.13036        1.51183
1

H          5.17900       12.43941        1.53247
15

C          5.32125       13.72356        7.56131
C          4.92706       12.69745        8.58458
H          5.63386       12.74305        9.41179
H          3.94543       12.95815        8.97747
C          4.56493       14.22582        6.54154
C          3.18393       13.82685        6.12775
H          2.68685       13.33556        6.96290
H          2.61308       14.71914        5.87503
C          3.20069       12.88013        4.92319
H          3.79208       11.99758        5.16255
H          2.18176       12.57891        4.68450
H          3.64001       13.38963        4.06685
C          5.35618       15.23624        5.87617
C          4.91161       16.02693        4.83888
H          3.92625       15.79537        4.43720
1

C          5.87145       12.89100        1.99962
5

F          8.21139       10.58807        7.78758
C          8.84065       10.90767        6.64708
F          9.51467        9.85871        6.28412
C          7.80715       11.25890        5.55488
O          6.95728       10.44842        5.28012
63

Fe         8.18542       16.43575        5.78523
N          9.19326       15.90603        7.50717
C          8.86606       14.88131        8.37058
C          9.95776       14.64974        9.29435
C         10.92603       15.55654        9.00538
C         12.22261       15.78092        9.71787
C         12.12969       16.93317       10.72011
H         11.31210       16.74472       11.41434
H         13.06473       17.00929       11.27312
H         11.94680       17.86491       10.18688
H         12.50620       14.87010       10.24313
H         13.00024       16.00173        8.98817
C          7.66168       14.20091        8.37350
H          7.53819       13.42003        9.12243
C          6.59235       14.42019        7.51029
C         10.44663       16.32617        7.88688
C         11.15383       17.35871        7.27837
H         12.15496       17.55635        7.65862
C         10.71383       18.15910        6.23797
C         11.45804       19.25786        5.66684
C         12.84388       19.70559        6.08920
C         12.80575       20.56165        7.33212
H         12.44461       19.96737        8.17016
H         12.13709       21.40599        7.17111
H         13.46366       18.82975        6.27545
H         13.30082       20.27191        5.27900
C         10.64879       19.81722        4.72302
C          9.42255       19.04830        4.70277
C          8.34061       19.29554        3.87402
C          7.15799       18.59747        3.83644
C          6.03511       18.89623        2.95804
C          5.99570       20.05885        1.98306
C          5.77905       21.40049        2.67745
H          6.62389       21.61313        3.33087
H          4.86527       21.35968        3.26843
H          5.69192       22.18675        1.92904
H          6.93401       20.09246        1.43137
H          5.19217       19.89512        1.26650
H          8.43726       20.12973        3.18069
C         10.91486       21.00780        3.83352
C         10.20426       22.24770        4.29560
H         10.59309       22.54837        5.26737
H          9.13738       22.04539        4.37782
H         10.36793       23.04900        3.57654
H         11.98656       21.19950        3.80846
H         10.59477       20.77242        2.81959
N          6.59293       15.33415        6.47494
N          9.47135       18.03891        5.64367
N          6.85933       17.48965        4.62312
C          5.58722       17.08345        4.25257
S          9.23181       15.04185        4.19512
C          7.88376       14.22474        3.37709
C          7.39771       12.99681        3.84462
N          8.01420       12.45550        4.99290
H          8.71742       13.06728        5.39469
C          6.38199       12.32605        3.16231
C          7.34996       14.74397        2.19083
N          7.92502       15.94120        1.70870
H          8.61667       16.34183        2.33428
C          7.82094       16.47592        0.47805
C          8.76196       17.65224        0.22646
F          9.41082       18.05869        1.29861
C          6.33822       14.07901        1.51183
1

O          5.66820        9.77642        0.44553
