1

F          1.09647        1.77280       19.19798
63

Fe         1.19099       -0.46628       25.25758
N          2.19883       -0.99599       26.97952
C          1.87163       -2.02071       27.84292
C          2.96333       -2.25229       28.76669
C          3.93160       -1.34548       28.47772
C          5.22817       -1.12110       29.19022
C          5.13526        0.03114       30.19246
H          4.31767       -0.15731       30.88669
H          6.07030        0.10727       30.74547
H          4.95237        0.96288       29.65923
H          5.51177       -2.03192       29.71548
H          6.00581       -0.90030       28.46052
C          0.66725       -2.70111       27.84585
H          0.54376       -3.48199       28.59478
C         -0.40208       -2.48183       26.98264
C          3.45220       -0.57585       27.35923
C          4.15939        0.45669       26.75072
H          5.16053        0.65433       27.13097
C          3.71940        1.25708       25.71031
C          4.46360        2.35583       25.13919
C          5.84945        2.80357       25.56154
C          5.81131        3.65963       26.80446
H          5.45017        3.06534       27.64251
H          5.14266        4.50396       26.64345
H          6.46923        1.92772       25.74780
H          6.30639        3.36989       24.75135
C          3.65436        2.91520       24.19536
C          2.42811        2.14627       24.17511
C          1.34617        2.39352       23.34637
C          0.16355        1.69544       23.30879
C         -0.95932        1.99420       22.43039
C         -0.99874        3.15682       21.45541
C         -1.21538        4.49847       22.14979
H         -0.37055        4.71111       22.80322
H         -2.12916        4.45766       22.74078
H         -1.30252        5.28473       21.40139
H         -0.06043        3.19044       20.90372
H         -1.80226        2.99309       20.73885
H          1.44283        3.22771       22.65304
C          3.92042        4.10578       23.30587
C          3.20982        5.34568       23.76795
H          3.59865        5.64635       24.73971
H          2.14294        5.14337       23.85017
H          3.37349        6.14698       23.04888
H          4.99212        4.29748       23.28080
H          3.60034        3.87040       22.29193
N         -0.40151       -1.56787       25.94729
N          2.47692        1.13689       25.11602
N         -0.13510        0.58763       24.09547
C         -1.40721        0.18143       23.72491
S          2.23738       -1.86018       23.66747
C          0.88932       -2.67729       22.84944
C          0.40328       -3.90521       23.31697
N          1.01976       -4.44652       24.46525
H          1.72298       -3.83474       24.86704
C         -0.61244       -4.57598       22.63466
C          0.35552       -2.15805       21.66318
N          0.93059       -0.96082       21.18105
H          1.62223       -0.56019       21.80662
C          0.82651       -0.42610       19.95039
C          1.76753        0.75021       19.69881
F          2.41639        1.15667       20.77096
C         -0.65621       -2.82301       20.98418
