63

Fe         1.80188        3.48710        5.78523
N          2.80972        2.95738        7.50717
C          2.48252        1.93266        8.37058
C          3.57422        1.70109        9.29435
C          4.54249        2.60789        9.00538
C          5.83906        2.83227        9.71787
C          5.74615        3.98452       10.72011
H          4.92856        3.79607       11.41434
H          6.68119        4.06064       11.27312
H          5.56326        4.91626       10.18688
H          6.12266        1.92145       10.24313
H          6.61670        3.05308        8.98817
C          1.27814        1.25226        8.37350
H          1.15465        0.47138        9.12243
C          0.20881        1.47154        7.51029
C          4.06309        3.37752        7.88688
C          4.77028        4.41006        7.27837
H          5.77142        4.60770        7.65862
C          4.33029        5.21045        6.23797
C          5.07449        6.30921        5.66684
C          6.46034        6.75694        6.08920
C          6.42220        7.61300        7.33212
H          6.06106        7.01872        8.17016
H          5.75355        8.45734        7.17111
H          7.08012        5.88110        6.27545
H          6.91728        7.32326        5.27900
C          4.26525        6.86857        4.72302
C          3.03900        6.09965        4.70277
C          1.95706        6.34689        3.87402
C          0.77444        5.64882        3.83644
C         -0.34843        5.94758        2.95804
C         -0.38785        7.11020        1.98306
C         -0.60449        8.45184        2.67745
H          0.24034        8.66448        3.33087
H         -1.51827        8.41103        3.26843
H         -0.69163        9.23810        1.92904
H          0.55046        7.14381        1.43137
H         -1.19137        6.94647        1.26650
H          2.05372        7.18108        3.18069
C          4.53131        8.05915        3.83352
C          3.82071        9.29905        4.29560
H          4.20954        9.59972        5.26737
H          2.75383        9.09674        4.37782
H          3.98438       10.10035        3.57654
H          5.60301        8.25085        3.80846
H          4.21123        7.82377        2.81959
N          0.20938        2.38550        6.47494
N          3.08781        5.09026        5.64367
N          0.47579        4.54100        4.62312
C         -0.79632        4.13480        4.25257
S          2.84827        2.09320        4.19512
C          1.50021        1.27609        3.37709
C          1.01417        0.04816        3.84462
N          1.63065       -0.49315        4.99290
H          2.33387        0.11863        5.39469
C         -0.00155       -0.62260        3.16231
C          0.96641        1.79532        2.19083
N          1.54148        2.99255        1.70870
H          2.23312        3.39318        2.33428
C          1.43740        3.52727        0.47805
C          2.37842        4.70359        0.22646
F          3.02728        5.11004        1.29861
C         -0.04532        1.13036        1.51183
63

Fe        -0.80268       16.43575        5.78523
N          0.20516       15.90603        7.50717
C         -0.12204       14.88131        8.37058
C          0.96966       14.64974        9.29435
C          1.93793       15.55654        9.00538
C          3.23451       15.78092        9.71787
C          3.14159       16.93317       10.72011
H          2.32400       16.74472       11.41434
H          4.07663       17.00929       11.27312
H          2.95870       17.86491       10.18688
H          3.51810       14.87010       10.24313
H          4.01214       16.00173        8.98817
C         -1.32642       14.20091        8.37350
H         -1.44991       13.42003        9.12243
C         -2.39575       14.42019        7.51029
C          1.45853       16.32617        7.88688
C          2.16573       17.35871        7.27837
H          3.16686       17.55635        7.65862
C          1.72573       18.15910        6.23797
C          2.46994       19.25786        5.66684
C          3.85578       19.70559        6.08920
C          3.81765       20.56165        7.33212
H          3.45651       19.96737        8.17016
H          3.14899       21.40599        7.17111
H          4.47556       18.82975        6.27545
H          4.31272       20.27191        5.27900
C          1.66069       19.81722        4.72302
C          0.43445       19.04830        4.70277
C         -0.64749       19.29554        3.87402
C         -1.83011       18.59747        3.83644
C         -2.95299       18.89623        2.95804
C         -2.99240       20.05885        1.98306
C         -3.20905       21.40049        2.67745
H         -2.36421       21.61313        3.33087
H         -4.12283       21.35968        3.26843
H         -3.29618       22.18675        1.92904
H         -2.05409       20.09246        1.43137
H         -3.79593       19.89512        1.26650
H         -0.55084       20.12973        3.18069
C          1.92676       21.00780        3.83352
C          1.21616       22.24770        4.29560
H          1.60499       22.54837        5.26737
H          0.14928       22.04539        4.37782
H          1.37983       23.04900        3.57654
H          2.99846       21.19950        3.80846
H          1.60667       20.77242        2.81959
N         -2.39517       15.33415        6.47494
N          0.48325       18.03891        5.64367
N         -2.12877       17.48965        4.62312
C         -3.40088       17.08345        4.25257
S          0.24371       15.04185        4.19512
C         -1.10434       14.22474        3.37709
C         -1.59039       12.99681        3.84462
N         -0.97390       12.45550        4.99290
H         -0.27068       13.06728        5.39469
C         -2.60611       12.32605        3.16231
C         -1.63814       14.74397        2.19083
N         -1.06308       15.94120        1.70870
H         -0.37143       16.34183        2.33428
C         -1.16716       16.47592        0.47805
C         -0.22614       17.65224        0.22646
F          0.42272       18.05869        1.29861
C         -2.64988       14.07901        1.51183
