63

Fe         1.80188        3.48710        5.78523
N          2.80972        2.95738        7.50717
C          2.48252        1.93266        8.37058
C          3.57422        1.70109        9.29435
C          4.54249        2.60789        9.00538
C          5.83906        2.83227        9.71787
C          5.74615        3.98452       10.72011
H          4.92856        3.79607       11.41434
H          6.68119        4.06064       11.27312
H          5.56326        4.91626       10.18688
H          6.12266        1.92145       10.24313
H          6.61670        3.05308        8.98817
C          1.27814        1.25226        8.37350
H          1.15465        0.47138        9.12243
C          0.20881        1.47154        7.51029
C          4.06309        3.37752        7.88688
C          4.77028        4.41006        7.27837
H          5.77142        4.60770        7.65862
C          4.33029        5.21045        6.23797
C          5.07449        6.30921        5.66684
C          6.46034        6.75694        6.08920
C          6.42220        7.61300        7.33212
H          6.06106        7.01872        8.17016
H          5.75355        8.45734        7.17111
H          7.08012        5.88110        6.27545
H          6.91728        7.32326        5.27900
C          4.26525        6.86857        4.72302
C          3.03900        6.09965        4.70277
C          1.95706        6.34689        3.87402
C          0.77444        5.64882        3.83644
C         -0.34843        5.94758        2.95804
C         -0.38785        7.11020        1.98306
C         -0.60449        8.45184        2.67745
H          0.24034        8.66448        3.33087
H         -1.51827        8.41103        3.26843
H         -0.69163        9.23810        1.92904
H          0.55046        7.14381        1.43137
H         -1.19137        6.94647        1.26650
H          2.05372        7.18108        3.18069
C          4.53131        8.05915        3.83352
C          3.82071        9.29905        4.29560
H          4.20954        9.59972        5.26737
H          2.75383        9.09674        4.37782
H          3.98438       10.10035        3.57654
H          5.60301        8.25085        3.80846
H          4.21123        7.82377        2.81959
N          0.20938        2.38550        6.47494
N          3.08781        5.09026        5.64367
N          0.47579        4.54100        4.62312
C         -0.79632        4.13480        4.25257
S          2.84827        2.09320        4.19512
C          1.50021        1.27609        3.37709
C          1.01417        0.04816        3.84462
N          1.63065       -0.49315        4.99290
H          2.33387        0.11863        5.39469
C         -0.00155       -0.62260        3.16231
C          0.96641        1.79532        2.19083
N          1.54148        2.99255        1.70870
H          2.23312        3.39318        2.33428
C          1.43740        3.52727        0.47805
C          2.37842        4.70359        0.22646
F          3.02728        5.11004        1.29861
C         -0.04532        1.13036        1.51183
63

Fe         4.40644       -9.46155        5.78523
N          5.41428       -9.99127        7.50717
C          5.08707      -11.01599        8.37058
C          6.17878      -11.24756        9.29435
C          7.14705      -10.34076        9.00538
C          8.44362      -10.11638        9.71787
C          8.35070       -8.96413       10.72011
H          7.53312       -9.15258       11.41434
H          9.28575       -8.88801       11.27312
H          8.16781       -8.03239       10.18688
H          8.72722      -11.02720       10.24313
H          9.22125       -9.89557        8.98817
C          3.88270      -11.69639        8.37350
H          3.75921      -12.47727        9.12243
C          2.81336      -11.47711        7.51029
C          6.66764       -9.57113        7.88688
C          7.37484       -8.53859        7.27837
H          8.37598       -8.34095        7.65862
C          6.93484       -7.73820        6.23797
C          7.67905       -6.63944        5.66684
C          9.06490       -6.19171        6.08920
C          9.02676       -5.33565        7.33212
H          8.66562       -5.92993        8.17016
H          8.35810       -4.49131        7.17111
H          9.68468       -7.06755        6.27545
H          9.52183       -5.62539        5.27900
C          6.86980       -6.08008        4.72302
C          5.64356       -6.84900        4.70277
C          4.56162       -6.60176        3.87402
C          3.37900       -7.29983        3.83644
C          2.25613       -7.00107        2.95804
C          2.21671       -5.83845        1.98306
C          2.00007       -4.49681        2.67745
H          2.84490       -4.28417        3.33087
H          1.08629       -4.53762        3.26843
H          1.91293       -3.71055        1.92904
H          3.15502       -5.80484        1.43137
H          1.41318       -6.00218        1.26650
H          4.65827       -5.76757        3.18069
C          7.13587       -4.88950        3.83352
C          6.42527       -3.64960        4.29560
H          6.81410       -3.34893        5.26737
H          5.35839       -3.85191        4.37782
H          6.58894       -2.84830        3.57654
H          8.20757       -4.69780        3.80846
H          6.81578       -5.12488        2.81959
N          2.81394      -10.56315        6.47494
N          5.69236       -7.85839        5.64367
N          3.08034       -8.40765        4.62312
C          1.80823       -8.81385        4.25257
S          5.45282      -10.85545        4.19512
C          4.10477      -11.67256        3.37709
C          3.61873      -12.90049        3.84462
N          4.23521      -13.44180        4.99290
H          4.93843      -12.83002        5.39469
C          2.60301      -13.57126        3.16231
C          3.57097      -11.15333        2.19083
N          4.14603       -9.95610        1.70870
H          4.83768       -9.55547        2.33428
C          4.04196       -9.42138        0.47805
C          4.98298       -8.24506        0.22646
F          5.63183       -7.83861        1.29861
C          2.55924      -11.81829        1.51183
