15

C          7.92581        0.77491        7.56131
C          7.53161       -0.25120        8.58458
H          8.23841       -0.20561        9.41179
H          6.54998        0.00950        8.97747
C          7.16948        1.27717        6.54154
C          5.78849        0.87820        6.12775
H          5.29141        0.38690        6.96290
H          5.21764        1.77049        5.87503
C          5.80524       -0.06852        4.92319
H          6.39664       -0.95107        5.16255
H          4.78631       -0.36974        4.68450
H          6.24456        0.44098        4.06685
C          7.96074        2.28759        5.87617
C          7.51617        3.07828        4.83888
H          6.53080        2.84672        4.43720
63

Fe        12.95887        5.50818       13.68711
N         11.95103        6.03789       11.96517
C         12.27824        7.06262       11.10177
C         11.18653        7.29419       10.17800
C         10.21826        6.38739       10.46697
C          8.92169        6.16300        9.75448
C          9.01461        5.01076        8.75224
H          9.83220        5.19921        8.05800
H          8.07956        4.93464        8.19923
H          9.19750        4.07902        9.28547
H          8.63809        7.07383        9.22922
H          8.14406        5.94220       10.48417
C         13.48261        7.74301       11.09885
H         13.60610        8.52390       10.34992
C         14.55195        7.52374       11.96206
C         10.69767        5.61776       11.58546
C          9.99047        4.58522       12.19397
H          8.98933        4.38758       11.81373
C         10.43047        3.78483       13.23438
C          9.68626        2.68607       13.80550
C          8.30041        2.23833       13.38315
C          8.33855        1.38227       12.14023
H          8.69969        1.97656       11.30218
H          9.00721        0.53794       12.30124
H          7.68063        3.11418       13.19690
H          7.84348        1.67202       14.19334
C         10.49551        2.12671       14.74933
C         11.72175        2.89563       14.76958
C         12.80369        2.64839       15.59832
C         13.98631        3.34646       15.63591
C         15.10918        3.04770       16.51430
C         15.14860        1.88508       17.48928
C         15.36524        0.54344       16.79490
H         14.52041        0.33079       16.14148
H         16.27902        0.58425       16.20392
H         15.45238       -0.24283       17.54331
H         14.21029        1.85146       18.04098
H         15.95213        2.04881       18.20584
H         12.70704        1.81420       16.29165
C         10.22944        0.93612       15.63883
C         10.94004       -0.30377       15.17675
H         10.55121       -0.60444       14.20498
H         12.00692       -0.10147       15.09452
H         10.77637       -1.10507       15.89581
H          9.15774        0.74442       15.66389
H         10.54953        1.17151       16.65276
N         14.55137        6.60978       12.99740
N         11.67295        3.90501       13.82868
N         14.28497        4.45428       14.84922
C         15.55708        4.86048       15.21978
S         11.91249        6.90208       15.27722
C         13.26054        7.71919       16.09526
C         13.74658        8.94712       15.62773
N         13.13010        9.48843       14.47944
H         12.42688        8.87664       14.07766
C         14.76230        9.61788       16.31004
C         13.79434        7.19996       17.28151
N         13.21928        6.00273       17.76365
H         12.52763        5.60210       17.13807
C         13.32335        5.46801       18.99430
C         12.38233        4.29169       19.24588
F         11.73348        3.88524       18.17374
C         14.80607        7.86492       17.96051
