1

O          0.10445       -0.78114       19.02682
63

Fe        -2.41277       -7.44047       13.68711
N         -3.42061       -6.91076       11.96517
C         -3.09341       -5.88603       11.10177
C         -4.18511       -5.65446       10.17800
C         -5.15338       -6.56126       10.46697
C         -6.44995       -6.78565        9.75448
C         -6.35703       -7.93789        8.75224
H         -5.53945       -7.74944        8.05800
H         -7.29208       -8.01401        8.19923
H         -6.17415       -8.86963        9.28547
H         -6.73355       -5.87482        9.22922
H         -7.22759       -7.00645       10.48417
C         -1.88903       -5.20564       11.09885
H         -1.76554       -4.42476       10.34992
C         -0.81969       -5.42491       11.96206
C         -4.67398       -7.33089       11.58546
C         -5.38117       -8.36343       12.19397
H         -6.38231       -8.56107       11.81373
C         -4.94117       -9.16382       13.23438
C         -5.68538      -10.26258       13.80550
C         -7.07123      -10.71032       13.38315
C         -7.03309      -11.56638       12.14023
H         -6.67195      -10.97209       11.30218
H         -6.36444      -12.41071       12.30124
H         -7.69101       -9.83447       13.19690
H         -7.52817      -11.27663       14.19334
C         -4.87614      -10.82194       14.74933
C         -3.64989      -10.05302       14.76958
C         -2.56795      -10.30026       15.59832
C         -1.38533       -9.60219       15.63591
C         -0.26246       -9.90095       16.51430
C         -0.22304      -11.06357       17.48928
C         -0.00640      -12.40521       16.79490
H         -0.85123      -12.61786       16.14148
H          0.90738      -12.36440       16.20392
H          0.08074      -13.19148       17.54331
H         -1.16135      -11.09719       18.04098
H          0.58048      -10.89984       18.20584
H         -2.66461      -11.13445       16.29165
C         -5.14220      -12.01253       15.63883
C         -4.43160      -13.25242       15.17675
H         -4.82043      -13.55309       14.20498
H         -3.36472      -13.05012       15.09452
H         -4.59527      -14.05372       15.89581
H         -6.21390      -12.20423       15.66389
H         -4.82212      -11.77714       16.65276
N         -0.82027       -6.33887       12.99740
N         -3.69870       -9.04364       13.82868
N         -1.08667       -8.49437       14.84922
C          0.18543       -8.08817       15.21978
S         -3.45916       -6.04657       15.27722
C         -2.11110       -5.22946       16.09526
C         -1.62506       -4.00153       15.62773
N         -2.24154       -3.46022       14.47944
H         -2.94476       -4.07201       14.07766
C         -0.60934       -3.33077       16.31004
C         -1.57730       -5.74870       17.28151
N         -2.15237       -6.94592       17.76365
H         -2.84401       -7.34655       17.13807
C         -2.04829       -7.48064       18.99430
C         -2.98931       -8.65696       19.24588
F         -3.63817       -9.06341       18.17374
C         -0.56557       -5.08373       17.96051
