1

H         -1.66483        7.94187        7.52996
63

Fe         3.97077        5.50818       13.68711
N          2.96293        6.03789       11.96517
C          3.29014        7.06262       11.10177
C          2.19843        7.29419       10.17800
C          1.23016        6.38739       10.46697
C         -0.06641        6.16300        9.75448
C          0.02651        5.01076        8.75224
H          0.84410        5.19921        8.05800
H         -0.90854        4.93464        8.19923
H          0.20940        4.07902        9.28547
H         -0.35001        7.07383        9.22922
H         -0.84404        5.94220       10.48417
C          4.49451        7.74301       11.09885
H          4.61800        8.52390       10.34992
C          5.56385        7.52374       11.96206
C          1.70957        5.61776       11.58546
C          1.00237        4.58522       12.19397
H          0.00123        4.38758       11.81373
C          1.44237        3.78483       13.23438
C          0.69816        2.68607       13.80550
C         -0.68769        2.23833       13.38315
C         -0.64955        1.38227       12.14023
H         -0.28841        1.97656       11.30218
H          0.01911        0.53794       12.30124
H         -1.30747        3.11418       13.19690
H         -1.14462        1.67202       14.19334
C          1.50741        2.12671       14.74933
C          2.73365        2.89563       14.76958
C          3.81559        2.64839       15.59832
C          4.99821        3.34646       15.63591
C          6.12108        3.04770       16.51430
C          6.16050        1.88508       17.48928
C          6.37714        0.54344       16.79490
H          5.53231        0.33079       16.14148
H          7.29092        0.58425       16.20392
H          6.46428       -0.24283       17.54331
H          5.22219        1.85146       18.04098
H          6.96403        2.04881       18.20584
H          3.71894        1.81420       16.29165
C          1.24134        0.93612       15.63883
C          1.95194       -0.30377       15.17675
H          1.56311       -0.60444       14.20498
H          3.01882       -0.10147       15.09452
H          1.78827       -1.10507       15.89581
H          0.16964        0.74442       15.66389
H          1.56143        1.17151       16.65276
N          5.56327        6.60978       12.99740
N          2.68485        3.90501       13.82868
N          5.29687        4.45428       14.84922
C          6.56898        4.86048       15.21978
S          2.92439        6.90208       15.27722
C          4.27244        7.71919       16.09526
C          4.75848        8.94712       15.62773
N          4.14200        9.48843       14.47944
H          3.43878        8.87664       14.07766
C          5.77420        9.61788       16.31004
C          4.80624        7.19996       17.28151
N          4.23118        6.00273       17.76365
H          3.53953        5.60210       17.13807
C          4.33525        5.46801       18.99430
C          3.39423        4.29169       19.24588
F          2.74538        3.88524       18.17374
C          5.81797        7.86492       17.96051
