5

C          3.11827        1.10235       11.65031
H          3.10968        0.28938       12.37482
H          3.74003        1.91424       12.02469
H          2.10182        1.46263       11.49882
H          4.09292        1.13497       11.16564
4

C          0.89461       -2.28841       11.39911
H          1.11656       -1.61196       10.57505
H         -0.06857       -2.02562       11.83403
H          1.67166       -2.20321       12.15731
