5

C          3.11827        1.10235       11.65031
H          3.10968        0.28938       12.37482
H          3.74003        1.91424       12.02469
H          2.10182        1.46263       11.49882
H          4.09292        1.13497       11.16564
4

C          3.67733        0.60005       10.33592
C          3.31684        0.82654       10.51507
H          2.27407        0.90930       10.81790
H          4.71920        0.31038       10.46447
