1

H          8.57880        1.49680        0.71464
8

C          7.67611        5.01108        3.21469
C          6.33607        4.84053        2.55594
H          5.60290        4.54736        3.30590
H          6.02043        5.79385        2.13466
C          6.37324        3.79167        1.45264
H          6.69179        2.83772        1.87029
H          5.37970        3.68523        1.01967
H          7.07483        4.10255        0.67995
1

C          8.47601       -0.05765        1.99962
1

H          7.78356       -0.50924        1.53247
63

Fe        10.78998        3.48710        5.78523
N         11.79782        2.95738        7.50717
C         11.47062        1.93266        8.37058
C         12.56232        1.70109        9.29435
C         13.53059        2.60789        9.00538
C         14.82716        2.83227        9.71787
C         14.73425        3.98452       10.72011
H         13.91666        3.79607       11.41434
H         15.66929        4.06064       11.27312
H         14.55136        4.91626       10.18688
H         15.11076        1.92145       10.24313
H         15.60480        3.05308        8.98817
C         10.26624        1.25226        8.37350
H         10.14275        0.47138        9.12243
C          9.19691        1.47154        7.51029
C         13.05119        3.37752        7.88688
C         13.75838        4.41006        7.27837
H         14.75952        4.60770        7.65862
C         13.31839        5.21045        6.23797
C         14.06259        6.30921        5.66684
C         15.44844        6.75694        6.08920
C         15.41030        7.61300        7.33212
H         15.04916        7.01872        8.17016
H         14.74165        8.45734        7.17111
H         16.06822        5.88110        6.27545
H         15.90538        7.32326        5.27900
C         13.25335        6.86857        4.72302
C         12.02710        6.09965        4.70277
C         10.94516        6.34689        3.87402
C          9.76254        5.64882        3.83644
C          8.63967        5.94758        2.95804
C          8.60025        7.11020        1.98306
C          8.38361        8.45184        2.67745
H          9.22844        8.66448        3.33087
H          7.46983        8.41103        3.26843
H          8.29647        9.23810        1.92904
H          9.53856        7.14381        1.43137
H          7.79673        6.94647        1.26650
H         11.04182        7.18108        3.18069
C         13.51941        8.05915        3.83352
C         12.80881        9.29905        4.29560
H         13.19764        9.59972        5.26737
H         11.74193        9.09674        4.37782
H         12.97248       10.10035        3.57654
H         14.59111        8.25085        3.80846
H         13.19933        7.82377        2.81959
N          9.19748        2.38550        6.47494
N         12.07591        5.09026        5.64367
N          9.46389        4.54100        4.62312
C          8.19178        4.13480        4.25257
S         11.83637        2.09320        4.19512
C         10.48831        1.27609        3.37709
C         10.00227        0.04816        3.84462
N         10.61875       -0.49315        4.99290
H         11.32197        0.11863        5.39469
C          8.98655       -0.62260        3.16231
C          9.95451        1.79532        2.19083
N         10.52958        2.99255        1.70870
H         11.22122        3.39318        2.33428
C         10.42550        3.52727        0.47805
C         11.36652        4.70359        0.22646
F         12.01538        5.11004        1.29861
C          8.94278        1.13036        1.51183
1

O          9.70344        3.17223       -0.44553
63

Fe         7.18622       -3.48710       -5.78523
N          6.17838       -2.95738       -7.50717
C          6.50558       -1.93266       -8.37058
C          5.41388       -1.70109       -9.29435
C          4.44561       -2.60789       -9.00538
C          3.14904       -2.83227       -9.71787
C          3.24195       -3.98452      -10.72011
H          4.05954       -3.79607      -11.41434
H          2.30691       -4.06064      -11.27312
H          3.42484       -4.91626      -10.18688
H          2.86544       -1.92145      -10.24313
H          2.37140       -3.05308       -8.98817
C          7.70996       -1.25226       -8.37350
H          7.83345       -0.47138       -9.12243
C          8.77929       -1.47154       -7.51029
C          4.92501       -3.37752       -7.88688
C          4.21782       -4.41006       -7.27837
H          3.21668       -4.60770       -7.65862
C          4.65781       -5.21045       -6.23797
C          3.91361       -6.30921       -5.66684
C          2.52776       -6.75694       -6.08920
C          2.56590       -7.61300       -7.33212
H          2.92704       -7.01872       -8.17016
H          3.23455       -8.45734       -7.17111
H          1.90798       -5.88110       -6.27545
H          2.07082       -7.32326       -5.27900
C          4.72285       -6.86857       -4.72302
C          5.94910       -6.09965       -4.70277
C          7.03104       -6.34689       -3.87402
C          8.21366       -5.64882       -3.83644
C          9.33653       -5.94758       -2.95804
C          9.37595       -7.11020       -1.98306
C          9.59259       -8.45184       -2.67745
H          8.74776       -8.66448       -3.33087
H         10.50637       -8.41103       -3.26843
H          9.67973       -9.23810       -1.92904
H          8.43764       -7.14381       -1.43137
H         10.17947       -6.94647       -1.26650
H          6.93438       -7.18108       -3.18069
C          4.45679       -8.05915       -3.83352
C          5.16739       -9.29905       -4.29560
H          4.77856       -9.59972       -5.26737
H          6.23427       -9.09674       -4.37782
H          5.00372      -10.10035       -3.57654
H          3.38509       -8.25085       -3.80846
H          4.77687       -7.82377       -2.81959
N          8.77872       -2.38550       -6.47494
N          5.90029       -5.09026       -5.64367
N          8.51231       -4.54100       -4.62312
C          9.78442       -4.13480       -4.25257
S          6.13983       -2.09320       -4.19512
C          7.48789       -1.27609       -3.37709
C          7.97393       -0.04816       -3.84462
N          7.35745        0.49315       -4.99290
H          6.65423       -0.11863       -5.39469
C          8.98965        0.62260       -3.16231
C          8.02169       -1.79532       -2.19083
N          7.44662       -2.99255       -1.70870
H          6.75498       -3.39318       -2.33428
C          7.55070       -3.52727       -0.47805
C          6.60968       -4.70359       -0.22646
F          5.96082       -5.11004       -1.29861
C          9.03342       -1.13036       -1.51183
1

C          9.50019        0.05765       -1.99962
1

H         10.19264        0.50924       -1.53247
