5

H          2.84826        0.09194        9.94666
C          3.64477       -0.61679       10.16846
H          3.44078       -1.25182       11.02930
H          4.69663       -0.69709        9.89814
H          3.03056       -0.93615        9.32782
4

C          4.69988       -4.55342        9.13643
C          5.06037       -4.77991        8.95728
H          6.10314       -4.86267        8.65445
H          3.65801       -4.26375        9.00788
