5

H          2.84826        0.09194        9.94666
C          3.64477       -0.61679       10.16846
H          3.44078       -1.25182       11.02930
H          4.69663       -0.69709        9.89814
H          3.03056       -0.93615        9.32782
5

H          5.52895       -4.04531        9.52568
C          4.73244       -3.33658        9.30389
H          4.93643       -2.70155        8.44304
H          3.68059       -3.25628        9.57421
H          5.34665       -3.01722       10.14453
