1

H          5.17900       12.43941        1.53247
63

Fe         8.18542       16.43575        5.78523
N          9.19326       15.90603        7.50717
C          8.86606       14.88131        8.37058
C          9.95776       14.64974        9.29435
C         10.92603       15.55654        9.00538
C         12.22261       15.78092        9.71787
C         12.12969       16.93317       10.72011
H         11.31210       16.74472       11.41434
H         13.06473       17.00929       11.27312
H         11.94680       17.86491       10.18688
H         12.50620       14.87010       10.24313
H         13.00024       16.00173        8.98817
C          7.66168       14.20091        8.37350
H          7.53819       13.42003        9.12243
C          6.59235       14.42019        7.51029
C         10.44663       16.32617        7.88688
C         11.15383       17.35871        7.27837
H         12.15496       17.55635        7.65862
C         10.71383       18.15910        6.23797
C         11.45804       19.25786        5.66684
C         12.84388       19.70559        6.08920
C         12.80575       20.56165        7.33212
H         12.44461       19.96737        8.17016
H         12.13709       21.40599        7.17111
H         13.46366       18.82975        6.27545
H         13.30082       20.27191        5.27900
C         10.64879       19.81722        4.72302
C          9.42255       19.04830        4.70277
C          8.34061       19.29554        3.87402
C          7.15799       18.59747        3.83644
C          6.03511       18.89623        2.95804
C          5.99570       20.05885        1.98306
C          5.77905       21.40049        2.67745
H          6.62389       21.61313        3.33087
H          4.86527       21.35968        3.26843
H          5.69192       22.18675        1.92904
H          6.93401       20.09246        1.43137
H          5.19217       19.89512        1.26650
H          8.43726       20.12973        3.18069
C         10.91486       21.00780        3.83352
C         10.20426       22.24770        4.29560
H         10.59309       22.54837        5.26737
H          9.13738       22.04539        4.37782
H         10.36793       23.04900        3.57654
H         11.98656       21.19950        3.80846
H         10.59477       20.77242        2.81959
N          6.59293       15.33415        6.47494
N          9.47135       18.03891        5.64367
N          6.85933       17.48965        4.62312
C          5.58722       17.08345        4.25257
S          9.23181       15.04185        4.19512
C          7.88376       14.22474        3.37709
C          7.39771       12.99681        3.84462
N          8.01420       12.45550        4.99290
H          8.71742       13.06728        5.39469
C          6.38199       12.32605        3.16231
C          7.34996       14.74397        2.19083
N          7.92502       15.94120        1.70870
H          8.61667       16.34183        2.33428
C          7.82094       16.47592        0.47805
C          8.76196       17.65224        0.22646
F          9.41082       18.05869        1.29861
C          6.33822       14.07901        1.51183
