5

F         -0.77671       10.58807        7.78758
C         -0.14745       10.90767        6.64708
F          0.52657        9.85871        6.28412
C         -1.18095       11.25890        5.55488
O         -2.03082       10.44842        5.28012
1

C         -3.11665       12.89100        1.99962
