5

H          2.84826        0.09194        9.94666
C          3.64477       -0.61679       10.16846
H          3.44078       -1.25182       11.02930
H          4.69663       -0.69709        9.89814
H          3.03056       -0.93615        9.32782
5

F          1.82785       -2.36058        7.78758
C          2.45710       -2.04098        6.64708
F          3.13113       -3.08994        6.28412
C          1.42360       -1.68975        5.55488
O          0.57374       -2.50023        5.28012
