5

H          2.84826        0.09194        9.94666
C          3.64477       -0.61679       10.16846
H          3.44078       -1.25182       11.02930
H          4.69663       -0.69709        9.89814
H          3.03056       -0.93615        9.32782
5

C          3.11827        1.10235       11.65031
H          3.10968        0.28938       12.37482
H          3.74003        1.91424       12.02469
H          2.10182        1.46263       11.49882
H          4.09292        1.13497       11.16564
