4

C          4.87804       11.28368        8.07324
H          4.65610       10.60723        8.89729
H          5.84122       11.02090        7.63831
H          4.10100       11.19849        7.31504
4

C          7.27815       10.66024       11.39911
H          7.50010       11.33669       10.57505
H          6.31498       10.92303       11.83403
H          8.05520       10.74544       12.15731
