63

Fe         1.80188        3.48710        5.78523
N          2.80972        2.95738        7.50717
C          2.48252        1.93266        8.37058
C          3.57422        1.70109        9.29435
C          4.54249        2.60789        9.00538
C          5.83906        2.83227        9.71787
C          5.74615        3.98452       10.72011
H          4.92856        3.79607       11.41434
H          6.68119        4.06064       11.27312
H          5.56326        4.91626       10.18688
H          6.12266        1.92145       10.24313
H          6.61670        3.05308        8.98817
C          1.27814        1.25226        8.37350
H          1.15465        0.47138        9.12243
C          0.20881        1.47154        7.51029
C          4.06309        3.37752        7.88688
C          4.77028        4.41006        7.27837
H          5.77142        4.60770        7.65862
C          4.33029        5.21045        6.23797
C          5.07449        6.30921        5.66684
C          6.46034        6.75694        6.08920
C          6.42220        7.61300        7.33212
H          6.06106        7.01872        8.17016
H          5.75355        8.45734        7.17111
H          7.08012        5.88110        6.27545
H          6.91728        7.32326        5.27900
C          4.26525        6.86857        4.72302
C          3.03900        6.09965        4.70277
C          1.95706        6.34689        3.87402
C          0.77444        5.64882        3.83644
C         -0.34843        5.94758        2.95804
C         -0.38785        7.11020        1.98306
C         -0.60449        8.45184        2.67745
H          0.24034        8.66448        3.33087
H         -1.51827        8.41103        3.26843
H         -0.69163        9.23810        1.92904
H          0.55046        7.14381        1.43137
H         -1.19137        6.94647        1.26650
H          2.05372        7.18108        3.18069
C          4.53131        8.05915        3.83352
C          3.82071        9.29905        4.29560
H          4.20954        9.59972        5.26737
H          2.75383        9.09674        4.37782
H          3.98438       10.10035        3.57654
H          5.60301        8.25085        3.80846
H          4.21123        7.82377        2.81959
N          0.20938        2.38550        6.47494
N          3.08781        5.09026        5.64367
N          0.47579        4.54100        4.62312
C         -0.79632        4.13480        4.25257
S          2.84827        2.09320        4.19512
C          1.50021        1.27609        3.37709
C          1.01417        0.04816        3.84462
N          1.63065       -0.49315        4.99290
H          2.33387        0.11863        5.39469
C         -0.00155       -0.62260        3.16231
C          0.96641        1.79532        2.19083
N          1.54148        2.99255        1.70870
H          2.23312        3.39318        2.33428
C          1.43740        3.52727        0.47805
C          2.37842        4.70359        0.22646
F          3.02728        5.11004        1.29861
C         -0.04532        1.13036        1.51183
63

Fe        10.78998        3.48710        5.78523
N         11.79782        2.95738        7.50717
C         11.47062        1.93266        8.37058
C         12.56232        1.70109        9.29435
C         13.53059        2.60789        9.00538
C         14.82716        2.83227        9.71787
C         14.73425        3.98452       10.72011
H         13.91666        3.79607       11.41434
H         15.66929        4.06064       11.27312
H         14.55136        4.91626       10.18688
H         15.11076        1.92145       10.24313
H         15.60480        3.05308        8.98817
C         10.26624        1.25226        8.37350
H         10.14275        0.47138        9.12243
C          9.19691        1.47154        7.51029
C         13.05119        3.37752        7.88688
C         13.75838        4.41006        7.27837
H         14.75952        4.60770        7.65862
C         13.31839        5.21045        6.23797
C         14.06259        6.30921        5.66684
C         15.44844        6.75694        6.08920
C         15.41030        7.61300        7.33212
H         15.04916        7.01872        8.17016
H         14.74165        8.45734        7.17111
H         16.06822        5.88110        6.27545
H         15.90538        7.32326        5.27900
C         13.25335        6.86857        4.72302
C         12.02710        6.09965        4.70277
C         10.94516        6.34689        3.87402
C          9.76254        5.64882        3.83644
C          8.63967        5.94758        2.95804
C          8.60025        7.11020        1.98306
C          8.38361        8.45184        2.67745
H          9.22844        8.66448        3.33087
H          7.46983        8.41103        3.26843
H          8.29647        9.23810        1.92904
H          9.53856        7.14381        1.43137
H          7.79673        6.94647        1.26650
H         11.04182        7.18108        3.18069
C         13.51941        8.05915        3.83352
C         12.80881        9.29905        4.29560
H         13.19764        9.59972        5.26737
H         11.74193        9.09674        4.37782
H         12.97248       10.10035        3.57654
H         14.59111        8.25085        3.80846
H         13.19933        7.82377        2.81959
N          9.19748        2.38550        6.47494
N         12.07591        5.09026        5.64367
N          9.46389        4.54100        4.62312
C          8.19178        4.13480        4.25257
S         11.83637        2.09320        4.19512
C         10.48831        1.27609        3.37709
C         10.00227        0.04816        3.84462
N         10.61875       -0.49315        4.99290
H         11.32197        0.11863        5.39469
C          8.98655       -0.62260        3.16231
C          9.95451        1.79532        2.19083
N         10.52958        2.99255        1.70870
H         11.22122        3.39318        2.33428
C         10.42550        3.52727        0.47805
C         11.36652        4.70359        0.22646
F         12.01538        5.11004        1.29861
C          8.94278        1.13036        1.51183
