5

F         -0.77671       10.58807        7.78758
C         -0.14745       10.90767        6.64708
F          0.52657        9.85871        6.28412
C         -1.18095       11.25890        5.55488
O         -2.03082       10.44842        5.28012
4

C         -4.11006       11.28368        8.07324
H         -4.33200       10.60723        8.89729
H         -3.14688       11.02090        7.63831
H         -4.88710       11.19849        7.31504
