63

Fe         1.80188        3.48710        5.78523
N          2.80972        2.95738        7.50717
C          2.48252        1.93266        8.37058
C          3.57422        1.70109        9.29435
C          4.54249        2.60789        9.00538
C          5.83906        2.83227        9.71787
C          5.74615        3.98452       10.72011
H          4.92856        3.79607       11.41434
H          6.68119        4.06064       11.27312
H          5.56326        4.91626       10.18688
H          6.12266        1.92145       10.24313
H          6.61670        3.05308        8.98817
C          1.27814        1.25226        8.37350
H          1.15465        0.47138        9.12243
C          0.20881        1.47154        7.51029
C          4.06309        3.37752        7.88688
C          4.77028        4.41006        7.27837
H          5.77142        4.60770        7.65862
C          4.33029        5.21045        6.23797
C          5.07449        6.30921        5.66684
C          6.46034        6.75694        6.08920
C          6.42220        7.61300        7.33212
H          6.06106        7.01872        8.17016
H          5.75355        8.45734        7.17111
H          7.08012        5.88110        6.27545
H          6.91728        7.32326        5.27900
C          4.26525        6.86857        4.72302
C          3.03900        6.09965        4.70277
C          1.95706        6.34689        3.87402
C          0.77444        5.64882        3.83644
C         -0.34843        5.94758        2.95804
C         -0.38785        7.11020        1.98306
C         -0.60449        8.45184        2.67745
H          0.24034        8.66448        3.33087
H         -1.51827        8.41103        3.26843
H         -0.69163        9.23810        1.92904
H          0.55046        7.14381        1.43137
H         -1.19137        6.94647        1.26650
H          2.05372        7.18108        3.18069
C          4.53131        8.05915        3.83352
C          3.82071        9.29905        4.29560
H          4.20954        9.59972        5.26737
H          2.75383        9.09674        4.37782
H          3.98438       10.10035        3.57654
H          5.60301        8.25085        3.80846
H          4.21123        7.82377        2.81959
N          0.20938        2.38550        6.47494
N          3.08781        5.09026        5.64367
N          0.47579        4.54100        4.62312
C         -0.79632        4.13480        4.25257
S          2.84827        2.09320        4.19512
C          1.50021        1.27609        3.37709
C          1.01417        0.04816        3.84462
N          1.63065       -0.49315        4.99290
H          2.33387        0.11863        5.39469
C         -0.00155       -0.62260        3.16231
C          0.96641        1.79532        2.19083
N          1.54148        2.99255        1.70870
H          2.23312        3.39318        2.33428
C          1.43740        3.52727        0.47805
C          2.37842        4.70359        0.22646
F          3.02728        5.11004        1.29861
C         -0.04532        1.13036        1.51183
63

Fe        -4.58166       -9.46155        5.78523
N         -3.57382       -9.99127        7.50717
C         -3.90103      -11.01599        8.37058
C         -2.80932      -11.24756        9.29435
C         -1.84105      -10.34076        9.00538
C         -0.54448      -10.11638        9.71787
C         -0.63740       -8.96413       10.72011
H         -1.45498       -9.15258       11.41434
H          0.29765       -8.88801       11.27312
H         -0.82029       -8.03239       10.18688
H         -0.26088      -11.02720       10.24313
H          0.23315       -9.89557        8.98817
C         -5.10540      -11.69639        8.37350
H         -5.22889      -12.47727        9.12243
C         -6.17474      -11.47711        7.51029
C         -2.32046       -9.57113        7.88688
C         -1.61326       -8.53859        7.27837
H         -0.61212       -8.34095        7.65862
C         -2.05326       -7.73820        6.23797
C         -1.30905       -6.63944        5.66684
C          0.07680       -6.19171        6.08920
C          0.03866       -5.33565        7.33212
H         -0.32248       -5.92993        8.17016
H         -0.63000       -4.49131        7.17111
H          0.69658       -7.06755        6.27545
H          0.53373       -5.62539        5.27900
C         -2.11830       -6.08008        4.72302
C         -3.34454       -6.84900        4.70277
C         -4.42648       -6.60176        3.87402
C         -5.60910       -7.29983        3.83644
C         -6.73197       -7.00107        2.95804
C         -6.77139       -5.83845        1.98306
C         -6.98803       -4.49681        2.67745
H         -6.14320       -4.28417        3.33087
H         -7.90181       -4.53762        3.26843
H         -7.07517       -3.71055        1.92904
H         -5.83308       -5.80484        1.43137
H         -7.57492       -6.00218        1.26650
H         -4.32983       -5.76757        3.18069
C         -1.85223       -4.88950        3.83352
C         -2.56283       -3.64960        4.29560
H         -2.17400       -3.34893        5.26737
H         -3.62971       -3.85191        4.37782
H         -2.39916       -2.84830        3.57654
H         -0.78053       -4.69780        3.80846
H         -2.17232       -5.12488        2.81959
N         -6.17416      -10.56315        6.47494
N         -3.29574       -7.85839        5.64367
N         -5.90776       -8.40765        4.62312
C         -7.17987       -8.81385        4.25257
S         -3.53528      -10.85545        4.19512
C         -4.88333      -11.67256        3.37709
C         -5.36937      -12.90049        3.84462
N         -4.75289      -13.44180        4.99290
H         -4.04967      -12.83002        5.39469
C         -6.38509      -13.57126        3.16231
C         -5.41713      -11.15333        2.19083
N         -4.84207       -9.95610        1.70870
H         -4.15042       -9.55547        2.33428
C         -4.94614       -9.42138        0.47805
C         -4.00512       -8.24506        0.22646
F         -3.35627       -7.83861        1.29861
C         -6.42886      -11.81829        1.51183
