5

F         -0.77671       10.58807        7.78758
C         -0.14745       10.90767        6.64708
F          0.52657        9.85871        6.28412
C         -1.18095       11.25890        5.55488
O         -2.03082       10.44842        5.28012
5

H          0.24370       13.04059        9.94666
C          1.04021       12.33186       10.16846
H          0.83623       11.69683       11.02930
H          2.09207       12.25156        9.89814
H          0.42601       12.01250        9.32782
