5

F         -0.77671       10.58807        7.78758
C         -0.14745       10.90767        6.64708
F          0.52657        9.85871        6.28412
C         -1.18095       11.25890        5.55488
O         -2.03082       10.44842        5.28012
5

C          2.65439        7.89293        7.82204
H          2.66297        8.70590        7.09752
H          2.03262        7.08104        7.44766
H          3.67083        7.53264        7.97352
H          1.67973        7.86031        8.30671
