63

Fe         1.80188        3.48710        5.78523
N          2.80972        2.95738        7.50717
C          2.48252        1.93266        8.37058
C          3.57422        1.70109        9.29435
C          4.54249        2.60789        9.00538
C          5.83906        2.83227        9.71787
C          5.74615        3.98452       10.72011
H          4.92856        3.79607       11.41434
H          6.68119        4.06064       11.27312
H          5.56326        4.91626       10.18688
H          6.12266        1.92145       10.24313
H          6.61670        3.05308        8.98817
C          1.27814        1.25226        8.37350
H          1.15465        0.47138        9.12243
C          0.20881        1.47154        7.51029
C          4.06309        3.37752        7.88688
C          4.77028        4.41006        7.27837
H          5.77142        4.60770        7.65862
C          4.33029        5.21045        6.23797
C          5.07449        6.30921        5.66684
C          6.46034        6.75694        6.08920
C          6.42220        7.61300        7.33212
H          6.06106        7.01872        8.17016
H          5.75355        8.45734        7.17111
H          7.08012        5.88110        6.27545
H          6.91728        7.32326        5.27900
C          4.26525        6.86857        4.72302
C          3.03900        6.09965        4.70277
C          1.95706        6.34689        3.87402
C          0.77444        5.64882        3.83644
C         -0.34843        5.94758        2.95804
C         -0.38785        7.11020        1.98306
C         -0.60449        8.45184        2.67745
H          0.24034        8.66448        3.33087
H         -1.51827        8.41103        3.26843
H         -0.69163        9.23810        1.92904
H          0.55046        7.14381        1.43137
H         -1.19137        6.94647        1.26650
H          2.05372        7.18108        3.18069
C          4.53131        8.05915        3.83352
C          3.82071        9.29905        4.29560
H          4.20954        9.59972        5.26737
H          2.75383        9.09674        4.37782
H          3.98438       10.10035        3.57654
H          5.60301        8.25085        3.80846
H          4.21123        7.82377        2.81959
N          0.20938        2.38550        6.47494
N          3.08781        5.09026        5.64367
N          0.47579        4.54100        4.62312
C         -0.79632        4.13480        4.25257
S          2.84827        2.09320        4.19512
C          1.50021        1.27609        3.37709
C          1.01417        0.04816        3.84462
N          1.63065       -0.49315        4.99290
H          2.33387        0.11863        5.39469
C         -0.00155       -0.62260        3.16231
C          0.96641        1.79532        2.19083
N          1.54148        2.99255        1.70870
H          2.23312        3.39318        2.33428
C          1.43740        3.52727        0.47805
C          2.37842        4.70359        0.22646
F          3.02728        5.11004        1.29861
C         -0.04532        1.13036        1.51183
63

Fe         3.97077        5.50818       13.68711
N          2.96293        6.03789       11.96517
C          3.29014        7.06262       11.10177
C          2.19843        7.29419       10.17800
C          1.23016        6.38739       10.46697
C         -0.06641        6.16300        9.75448
C          0.02651        5.01076        8.75224
H          0.84410        5.19921        8.05800
H         -0.90854        4.93464        8.19923
H          0.20940        4.07902        9.28547
H         -0.35001        7.07383        9.22922
H         -0.84404        5.94220       10.48417
C          4.49451        7.74301       11.09885
H          4.61800        8.52390       10.34992
C          5.56385        7.52374       11.96206
C          1.70957        5.61776       11.58546
C          1.00237        4.58522       12.19397
H          0.00123        4.38758       11.81373
C          1.44237        3.78483       13.23438
C          0.69816        2.68607       13.80550
C         -0.68769        2.23833       13.38315
C         -0.64955        1.38227       12.14023
H         -0.28841        1.97656       11.30218
H          0.01911        0.53794       12.30124
H         -1.30747        3.11418       13.19690
H         -1.14462        1.67202       14.19334
C          1.50741        2.12671       14.74933
C          2.73365        2.89563       14.76958
C          3.81559        2.64839       15.59832
C          4.99821        3.34646       15.63591
C          6.12108        3.04770       16.51430
C          6.16050        1.88508       17.48928
C          6.37714        0.54344       16.79490
H          5.53231        0.33079       16.14148
H          7.29092        0.58425       16.20392
H          6.46428       -0.24283       17.54331
H          5.22219        1.85146       18.04098
H          6.96403        2.04881       18.20584
H          3.71894        1.81420       16.29165
C          1.24134        0.93612       15.63883
C          1.95194       -0.30377       15.17675
H          1.56311       -0.60444       14.20498
H          3.01882       -0.10147       15.09452
H          1.78827       -1.10507       15.89581
H          0.16964        0.74442       15.66389
H          1.56143        1.17151       16.65276
N          5.56327        6.60978       12.99740
N          2.68485        3.90501       13.82868
N          5.29687        4.45428       14.84922
C          6.56898        4.86048       15.21978
S          2.92439        6.90208       15.27722
C          4.27244        7.71919       16.09526
C          4.75848        8.94712       15.62773
N          4.14200        9.48843       14.47944
H          3.43878        8.87664       14.07766
C          5.77420        9.61788       16.31004
C          4.80624        7.19996       17.28151
N          4.23118        6.00273       17.76365
H          3.53953        5.60210       17.13807
C          4.33525        5.46801       18.99430
C          3.39423        4.29169       19.24588
F          2.74538        3.88524       18.17374
C          5.81797        7.86492       17.96051
