1

H          5.17900       12.43941        1.53247
15

C          5.32125       13.72356        7.56131
C          4.92706       12.69745        8.58458
H          5.63386       12.74305        9.41179
H          3.94543       12.95815        8.97747
C          4.56493       14.22582        6.54154
C          3.18393       13.82685        6.12775
H          2.68685       13.33556        6.96290
H          2.61308       14.71914        5.87503
C          3.20069       12.88013        4.92319
H          3.79208       11.99758        5.16255
H          2.18176       12.57891        4.68450
H          3.64001       13.38963        4.06685
C          5.35618       15.23624        5.87617
C          4.91161       16.02693        4.83888
H          3.92625       15.79537        4.43720
