1

H          6.04594       11.49904        3.48555
5

F          8.21139       10.58807        7.78758
C          8.84065       10.90767        6.64708
F          9.51467        9.85871        6.28412
C          7.80715       11.25890        5.55488
O          6.95728       10.44842        5.28012
